本程序使用方法：
1. 双击StartExe.exe文件，对程序进行初始化。
2. 打开WindTurbine.mo文件，加载模型。
3. 打开WindTurbine->AssembleFactory_2模型。
4. 开始仿真，仿真时需要将积分方法调成eular模式，间隔步数一般比Aerodyn中的步数少3步。
5.通过CMD运行AeroDynZhu.exe文件。